LTspice 24.1.9 for Windows
Circuit: C:\Users\luigi\OneDrive\KIT_courses\4th Semester\Microwave Engineering Lab\Microwave_Eng_Lab\Lab6_Analog_Digital_Mod\LT Spice\7.1.2.- Demodulator\Mod_Generator.net
Start Time: Mon Jun  2 09:14:44 2025
solver = Normal
Maximum thread count: 24
tnom = 27
temp = 27
method = trap
Direct Newton iteration for .op point succeeded.
.step cval=2.5e-09
.step cval=5e-09
.step cval=7.5e-09
.step cval=1e-08
Total elapsed time: 2.473 seconds.

Files loaded:
C:\Users\luigi\OneDrive\KIT_courses\4th Semester\Microwave Engineering Lab\Microwave_Eng_Lab\Lab6_Analog_Digital_Mod\LT Spice\7.1.2.- Demodulator\Mod_Generator.net
C:\Users\luigi\AppData\Local\LTspice\lib\cmp\standard.dio

