LTspice 24.1.9 for Windows
Circuit: C:\Users\luigi\OneDrive\KIT_courses\4th Semester\Microwave Engineering Lab\Microwave_Eng_Lab\Lab6_Analog_Digital_Mod\LT Spice\7.1.2.- Demodulator\0.- CapacitorSelection\Mod_Generator.net
Start Time: Thu Jun  5 19:32:23 2025
solver = Normal
Maximum thread count: 24
tnom = 27
temp = 27
method = trap
Direct Newton iteration for .op point succeeded.
.step cval=1e-10
.step cval=2e-10
.step cval=3e-10
.step cval=4e-10
.step cval=5e-10
.step cval=6e-10
.step cval=7e-10
.step cval=8e-10
.step cval=9e-10
.step cval=1e-09
.step cval=1.1e-09
.step cval=1.2e-09
.step cval=1.3e-09
.step cval=1.4e-09
.step cval=1.5e-09
.step cval=1.6e-09
Total elapsed time: 6.942 seconds.

Files loaded:
C:\Users\luigi\OneDrive\KIT_courses\4th Semester\Microwave Engineering Lab\Microwave_Eng_Lab\Lab6_Analog_Digital_Mod\LT Spice\7.1.2.- Demodulator\0.- CapacitorSelection\Mod_Generator.net
C:\Users\luigi\AppData\Local\LTspice\lib\cmp\standard.dio

