LTspice 24.1.9 for Windows
Circuit: C:\Users\luigi\OneDrive\KIT_courses\4th Semester\Microwave Engineering Lab\Microwave_Eng_Lab\Lab6_Analog_Digital_Mod\LT Spice\LAst Ex\Freq_Demod_raw_SS25.net
Start Time: Mon Jun  2 21:58:38 2025
solver = Normal
Maximum thread count: 24
tnom = 27
temp = 27
method = trap
Direct Newton iteration for .op point succeeded.
Total elapsed time: 1.163 seconds.

Files loaded:
C:\Users\luigi\OneDrive\KIT_courses\4th Semester\Microwave Engineering Lab\Microwave_Eng_Lab\Lab6_Analog_Digital_Mod\LT Spice\LAst Ex\Freq_Demod_raw_SS25.net
C:\Users\luigi\AppData\Local\LTspice\lib\cmp\standard.dio
C:\Users\luigi\AppData\Local\LTspice\lib\sub\opamp.sub

