LTspice 24.1.9 for Windows
Circuit: C:\Users\luigi\OneDrive\KIT_courses\4th Semester\Microwave Engineering Lab\Microwave_Eng_Lab\Lab6_Analog_Digital_Mod\LT Spice\7.1.1.- Mod Generator\Mod_Generator.net
Start Time: Thu Jun  5 12:20:10 2025
solver = Normal
Maximum thread count: 24
tnom = 27
temp = 27
method = trap
Direct Newton iteration for .op point succeeded.
Total elapsed time: 1.038 seconds.

Files loaded:
C:\Users\luigi\OneDrive\KIT_courses\4th Semester\Microwave Engineering Lab\Microwave_Eng_Lab\Lab6_Analog_Digital_Mod\LT Spice\7.1.1.- Mod Generator\Mod_Generator.net

