LTspice 24.1.9 for Windows
Circuit: C:\Users\luigi\OneDrive\KIT_courses\4th Semester\Microwave Engineering Lab\Microwave_Eng_Lab\Lab6_Analog_Digital_Mod\LT Spice\1.- Mod Generator\Mod_Generator.net
Start Time: Mon Jun  2 08:42:48 2025
solver = Normal
Maximum thread count: 24
tnom = 27
temp = 27
method = trap
Direct Newton iteration for .op point succeeded.
Total elapsed time: 0.444 seconds.

Files loaded:
C:\Users\luigi\OneDrive\KIT_courses\4th Semester\Microwave Engineering Lab\Microwave_Eng_Lab\Lab6_Analog_Digital_Mod\LT Spice\1.- Mod Generator\Mod_Generator.net

